
This summary file was generated by TurbSim (from OpenFAST-v1.0-243-gff93480d-dirty) on 09-Feb-2023 at 13:52:18.


Runtime Options:

1501552846  Random seed #1
    RANLUX  Type of random number generator
         F  Output binary HH turbulence parameters?
         F  Output formatted turbulence parameters?
         F  Output AeroDyn HH files?
         T  Output AeroDyn FF files?
         F  Output BLADED FF files?
         F  Output tower data?
         F  Output HAWC FF files?
         F  Output formatted FF files?
         F  Output coherent turbulence time step file?
 0 -  NONE  IEC turbulence models scaled to exact specified standard deviation


Turbine/Model Specifications:

        25  Vertical grid-point matrix dimension
        25  Horizontal grid-point matrix dimension
     0.050  Time step [seconds]
   605.000  Analysis time [seconds]
   605.000  Usable output time [seconds]
   110.000  Hub height [m]
   219.999  Grid height [m]
   219.999  Grid width [m]
     0.000  Vertical flow angle [degrees]
     0.000  Horizontal flow angle [degrees]


Meteorological Boundary Conditions:

    IECKAI  IEC Kaimal spectral model
         1  IEC standard: IEC 61400-1 Ed. 3: 2005
         A  IEC turbulence characteristic
       NTM  IEC Normal Turbulence Model
       N/A  IEC Extreme Turbulence Model (ETM) "c" parameter [m/s]
       PL   Wind profile type
   100.000  Reference height [m]
    10.000  Reference wind speed [m/s]
       N/A  Jet height [m]
     0.200  Power law exponent
     0.030  Surface roughness length [m]


Non-IEC Meteorological Boundary Conditions:

       N/A  Site latitude [degrees]
       N/A  Gradient Richardson number
       N/A  Friction or shear velocity [m/s]
       N/A  Mixing layer depth [m]
       N/A  Mean hub u'w' Reynolds stress
       N/A  Mean hub u'v' Reynolds stress
       N/A  Mean hub v'w' Reynolds stress


Spatial Coherence Models:

       IEC  u-component coherence model
      NONE  v-component coherence model
      NONE  w-component coherence model
(   12.000, 0.353E-03)  u-component coherence parameters
                   N/A  v-component coherence parameters
                   N/A  w-component coherence parameters
       N/A  Coherence exponent


You have requested that the following file(s) be generated:

   IEA34_NTM_U10.000000_Seed1501552846.0.bts (AeroDyn/TurbSim full-field wind file)


Turbulence Simulation Scaling Parameter Summary:

   Turbulence model used                            =  IEC Kaimal
   Turbulence characteristic                        =  A
   IEC turbulence type                              =  Normal Turbulence Model
   IEC standard                                     =  IEC 61400-1 Ed. 3: 2005
   Mean wind speed at hub height                    =   10.192 m/s
   Expected value of turbulence intensity at 15 m/s =   16.000%
   Characteristic value of standard deviation       =    2.119 m/s
   Turbulence scale                                 =   42.000 m
   u-component integral scale                       =  340.200 m
   Coherency scale                                  =  340.200 m
   Characteristic value of hub turbulence intensity =   20.791%
   Gradient Richardson number                       =    0.000

   Wind profile type                                =  Power law
   Power law exponent                               =    0.200
   Mean shear across rotor disk                     =    0.049 (m/s)/m
   Assumed rotor diameter                           =  219.999 m
   Surface roughness length                         =    0.030 m

   Nyquist frequency of turbulent wind field        =   10.000 Hz

   Number of time steps in the FFT                  =    12100
   Number of time steps output                      =    12100
   Number of points simulated                       =      625


Mean Flow Angles:

   Vertical   =   0.0 degrees
   Horizontal =   0.0 degrees

Mean Wind Speed Profile:

   Height    Wind Speed   Horizontal Angle  Vertical Angle  U-comp (X)   V-comp (Y)   W-comp (Z)
     (m)        (m/s)         (degrees)       (degrees)       (m/s)        (m/s)        (m/s)   
   ------    ----------   ----------------  --------------  ----------   ----------   ----------
    220.0       11.71            0.00            0.00         11.71         0.00         0.00
    210.8       11.61            0.00            0.00         11.61         0.00         0.00
    201.7       11.51            0.00            0.00         11.51         0.00         0.00
    192.5       11.40            0.00            0.00         11.40         0.00         0.00
    183.3       11.29            0.00            0.00         11.29         0.00         0.00
    174.2       11.17            0.00            0.00         11.17         0.00         0.00
    165.0       11.05            0.00            0.00         11.05         0.00         0.00
    155.8       10.93            0.00            0.00         10.93         0.00         0.00
    146.7       10.80            0.00            0.00         10.80         0.00         0.00
    137.5       10.66            0.00            0.00         10.66         0.00         0.00
    128.3       10.51            0.00            0.00         10.51         0.00         0.00
    119.2       10.36            0.00            0.00         10.36         0.00         0.00
    110.0       10.19            0.00            0.00         10.19         0.00         0.00
    100.8       10.02            0.00            0.00         10.02         0.00         0.00
     91.7        9.83            0.00            0.00          9.83         0.00         0.00
     82.5        9.62            0.00            0.00          9.62         0.00         0.00
     73.3        9.40            0.00            0.00          9.40         0.00         0.00
     64.2        9.15            0.00            0.00          9.15         0.00         0.00
     55.0        8.87            0.00            0.00          8.87         0.00         0.00
     45.8        8.56            0.00            0.00          8.56         0.00         0.00
     36.7        8.18            0.00            0.00          8.18         0.00         0.00
     27.5        7.72            0.00            0.00          7.72         0.00         0.00
     18.3        7.12            0.00            0.00          7.12         0.00         0.00
      9.2        6.20            0.00            0.00          6.20         0.00         0.00
      0.0        0.87            0.00            0.00          0.87         0.00         0.00


Harvested Random Seeds after Generation of the Random Numbers:

    105402294 K 1
            0 K 2


Hub-Height Simulated Turbulence Statistical Summary:

   Type of Wind        Min (m/s)   Mean (m/s)    Max (m/s)  Sigma (m/s)       TI (%)
   ----------------    ---------   ----------    ---------  -----------       ------
   Longitudinal (u)         4.33        10.19        15.84        2.109       20.693
   Lateral (v)             -4.99         0.00         6.23        1.653       16.222
   Vertical (w)            -3.93        -0.00         3.76        1.037       10.173
   U component              4.33        10.19        15.84        2.109       20.693
   V component             -4.99         0.00         6.23        1.653       16.222
   W component             -3.93        -0.00         3.76        1.037       10.173
   Horizontal (U&V)         4.54        10.33        15.85        2.097       20.301
   Total                    4.56        10.38        15.89        2.086       20.091

                       Min Reynolds     Mean Reynolds    Max Reynolds    Correlation
   Product             Stress (m/s)^2   Stress (m/s)^2   Stress (m/s)^2  Coefficient
   ----------------    --------------   --------------   --------------  -----------
   u'w'                    -10.844             0.354            16.950         0.162
   u'v'                    -20.481             0.244            18.105         0.070
   v'w'                    -13.433            -0.147             7.333        -0.085


   Friction Velocity (Ustar)  =      0.595 m/s
   Maximum Instantaneous TKE  =     24.208 (m/s)^2
   Maximum Instantaneous CTKE =     10.278 (m/s)^2


Grid Point Variance Summary:

   Y-coord -110.00 -100.83  -91.67  -82.50  -73.33  -64.17  -55.00  -45.83  -36.67  -27.50  -18.33   -9.17    0.00    9.17   18.33   27.50   36.67   45.83   55.00   64.17   73.33   82.50   91.67  100.83  110.00

   Height   Standard deviation at grid points for the u component:
   220.00    1.773   1.634   1.743   1.741   1.867   1.832   1.881   2.003   1.896   2.057   2.076   1.921   1.747   1.737   1.651   1.704   1.812   1.870   1.909   1.797   1.884   1.977   2.023   1.943   2.129
   210.83    1.644   1.653   1.636   1.634   1.716   1.855   1.949   2.040   1.963   1.979   1.931   1.922   1.787   1.634   1.626   1.862   2.007   2.044   1.978   1.982   1.948   1.943   1.899   1.993   2.230
   201.67    1.743   1.607   1.656   1.647   1.710   1.922   2.090   2.015   1.996   1.892   1.840   1.818   1.839   1.786   1.770   1.977   1.976   2.098   2.024   2.299   2.165   2.182   2.181   2.259   2.196
   192.50    1.674   1.648   1.597   1.642   1.659   1.866   2.056   1.926   1.792   1.905   1.867   1.832   1.907   1.947   1.943   2.053   2.125   2.166   2.172   2.346   2.278   2.232   2.315   2.403   2.225
   183.33    1.687   1.572   1.592   1.626   1.755   1.956   2.061   2.194   2.003   1.941   1.706   1.780   1.751   1.973   2.055   1.953   1.961   2.247   2.305   2.454   2.312   2.405   2.437   2.349   2.308
   174.17    1.831   1.662   1.646   1.687   1.942   2.016   2.058   2.137   2.112   1.773   1.857   1.975   1.877   2.021   1.972   1.939   2.004   2.224   2.338   2.319   2.352   2.374   2.379   2.193   2.384
   165.00    1.706   1.716   1.699   1.835   2.158   1.954   2.017   1.980   1.781   1.941   1.940   2.057   1.996   1.999   2.031   1.941   2.037   2.291   2.359   2.446   2.317   2.179   2.106   2.264   2.326
   155.83    1.586   1.507   1.724   1.816   1.982   2.116   1.997   1.828   1.839   2.028   2.127   2.125   2.143   1.907   2.189   2.204   2.227   2.291   2.457   2.422   2.305   2.281   2.233   2.209   2.351
   146.67    1.659   1.561   1.623   1.836   1.898   2.007   1.990   1.941   1.992   1.993   2.252   2.135   2.172   2.117   2.321   2.469   2.540   2.457   2.327   2.478   2.283   2.222   2.379   2.249   2.391
   137.50    1.540   1.591   1.707   1.863   1.864   1.965   1.947   1.947   1.883   2.039   2.277   2.186   2.157   2.200   2.395   2.324   2.453   2.435   2.640   2.597   2.444   2.310   2.258   2.418   2.550
   128.33    1.735   1.588   1.711   1.900   1.853   1.999   1.871   1.865   1.919   2.061   2.216   2.204   2.212   2.193   2.127   2.173   2.114   2.350   2.558   2.589   2.688   2.471   2.350   2.470   2.523
   119.17    1.627   1.623   1.693   1.850   1.900   1.920   1.949   2.023   2.085   2.163   2.235   2.194   2.185   2.052   2.109   1.955   2.165   2.351   2.467   2.539   2.481   2.465   2.344   2.496   2.332
   110.00    1.726   1.670   1.701   1.832   1.755   1.860   1.982   2.081   2.155   2.203   2.067   2.202   2.109   2.139   2.266   2.254   2.017   2.148   2.400   2.414   2.321   2.327   2.338   2.298   2.228
   100.83    1.867   1.846   1.898   1.884   1.963   1.888   2.055   2.030   2.119   2.132   2.163   2.187   2.189   2.141   2.166   2.116   1.864   2.002   2.098   2.271   2.335   2.309   2.247   2.143   2.204
    91.67    2.145   1.972   2.049   1.873   1.940   1.931   2.071   2.001   2.239   2.371   2.217   2.257   2.097   2.010   1.981   1.889   1.894   1.977   1.963   2.108   2.218   2.243   2.091   2.163   2.228
    82.50    2.224   2.125   1.967   1.918   2.063   1.897   2.101   2.007   2.152   2.394   2.160   2.094   2.208   2.129   2.046   2.019   2.033   1.912   1.902   2.027   1.973   2.004   1.951   2.001   2.061
    73.33    2.230   2.210   1.998   2.101   2.078   1.926   1.784   1.976   1.986   2.243   2.117   2.154   2.112   2.025   1.872   1.839   1.793   1.893   2.050   1.990   1.977   1.889   2.011   2.122   2.132
    64.17    2.298   2.227   2.037   2.104   1.970   1.876   1.861   1.916   2.135   2.167   2.178   2.101   2.016   1.982   1.848   1.745   1.769   1.800   2.075   1.825   1.933   1.958   1.844   1.946   2.005
    55.00    2.122   2.229   2.061   1.889   2.111   2.016   1.814   1.918   1.996   2.021   2.219   1.980   1.867   1.857   1.867   1.772   1.649   1.810   1.846   1.840   1.784   1.692   1.867   2.010   1.854
    45.83    2.215   2.202   1.978   2.104   2.031   1.954   1.944   1.929   1.985   1.857   2.102   2.003   1.909   1.854   1.676   1.634   1.735   1.897   1.685   1.549   1.705   1.758   1.806   1.881   1.836
    36.67    2.248   2.132   1.906   2.054   1.810   2.000   1.919   1.898   1.959   1.805   1.998   1.965   1.974   2.064   1.772   1.742   1.772   1.800   1.726   1.597   1.679   1.786   1.835   2.040   1.991
    27.50    2.296   2.096   2.029   1.932   1.964   2.000   1.958   1.908   1.925   1.896   2.036   2.018   2.168   1.901   1.810   1.703   1.680   1.716   1.677   1.847   2.010   2.059   2.038   2.015   2.196
    18.33    2.194   2.103   2.081   2.126   2.041   1.943   1.820   2.006   2.019   1.962   1.890   1.883   2.016   1.897   1.875   1.727   1.701   1.888   1.839   1.965   1.977   2.143   2.161   2.129   2.147
     9.17    2.086   2.113   2.072   1.958   2.061   2.062   1.904   1.969   2.062   2.009   1.896   1.882   1.830   1.859   1.838   1.884   1.832   1.960   2.108   1.921   2.074   2.032   2.079   1.997   1.860
     0.00    2.003   2.102   1.992   2.053   1.825   2.065   2.064   1.955   2.015   1.928   1.928   1.938   1.884   1.981   1.882   1.748   1.849   1.844   1.948   1.975   2.133   1.927   1.865   1.940   1.912

   Height   Standard deviation at grid points for the v component:
   220.00    1.653   1.653   1.653   1.653   1.653   1.653   1.653   1.653   1.653   1.653   1.653   1.653   1.653   1.653   1.653   1.653   1.653   1.653   1.653   1.653   1.653   1.653   1.653   1.653   1.653
   210.83    1.653   1.653   1.653   1.653   1.653   1.653   1.653   1.653   1.653   1.653   1.653   1.653   1.653   1.653   1.653   1.653   1.653   1.653   1.653   1.653   1.653   1.653   1.653   1.653   1.653
   201.67    1.653   1.653   1.653   1.653   1.653   1.653   1.653   1.653   1.653   1.653   1.653   1.653   1.653   1.653   1.653   1.653   1.653   1.653   1.653   1.653   1.653   1.653   1.653   1.653   1.653
   192.50    1.653   1.653   1.653   1.653   1.653   1.653   1.653   1.653   1.653   1.653   1.653   1.653   1.653   1.653   1.653   1.653   1.653   1.653   1.653   1.653   1.653   1.653   1.653   1.653   1.653
   183.33    1.653   1.653   1.653   1.653   1.653   1.653   1.653   1.653   1.653   1.653   1.653   1.653   1.653   1.653   1.653   1.653   1.653   1.653   1.653   1.653   1.653   1.653   1.653   1.653   1.653
   174.17    1.653   1.653   1.653   1.653   1.653   1.653   1.653   1.653   1.653   1.653   1.653   1.653   1.653   1.653   1.653   1.653   1.653   1.653   1.653   1.653   1.653   1.653   1.653   1.653   1.653
   165.00    1.653   1.653   1.653   1.653   1.653   1.653   1.653   1.653   1.653   1.653   1.653   1.653   1.653   1.653   1.653   1.653   1.653   1.653   1.653   1.653   1.653   1.653   1.653   1.653   1.653
   155.83    1.653   1.653   1.653   1.653   1.653   1.653   1.653   1.653   1.653   1.653   1.653   1.653   1.653   1.653   1.653   1.653   1.653   1.653   1.653   1.653   1.653   1.653   1.653   1.653   1.653
   146.67    1.653   1.653   1.653   1.653   1.653   1.653   1.653   1.653   1.653   1.653   1.653   1.653   1.653   1.653   1.653   1.653   1.653   1.653   1.653   1.653   1.653   1.653   1.653   1.653   1.653
   137.50    1.653   1.653   1.653   1.653   1.653   1.653   1.653   1.653   1.653   1.653   1.653   1.653   1.653   1.653   1.653   1.653   1.653   1.653   1.653   1.653   1.653   1.653   1.653   1.653   1.653
   128.33    1.653   1.653   1.653   1.653   1.653   1.653   1.653   1.653   1.653   1.653   1.653   1.653   1.653   1.653   1.653   1.653   1.653   1.653   1.653   1.653   1.653   1.653   1.653   1.653   1.653
   119.17    1.653   1.653   1.653   1.653   1.653   1.653   1.653   1.653   1.653   1.653   1.653   1.653   1.653   1.653   1.653   1.653   1.653   1.653   1.653   1.653   1.653   1.653   1.653   1.653   1.653
   110.00    1.653   1.653   1.653   1.653   1.653   1.653   1.653   1.653   1.653   1.653   1.653   1.653   1.653   1.653   1.653   1.653   1.653   1.653   1.653   1.653   1.653   1.653   1.653   1.653   1.653
   100.83    1.653   1.653   1.653   1.653   1.653   1.653   1.653   1.653   1.653   1.653   1.653   1.653   1.653   1.653   1.653   1.653   1.653   1.653   1.653   1.653   1.653   1.653   1.653   1.653   1.653
    91.67    1.653   1.653   1.653   1.653   1.653   1.653   1.653   1.653   1.653   1.653   1.653   1.653   1.653   1.653   1.653   1.653   1.653   1.653   1.653   1.653   1.653   1.653   1.653   1.653   1.653
    82.50    1.653   1.653   1.653   1.653   1.653   1.653   1.653   1.653   1.653   1.653   1.653   1.653   1.653   1.653   1.653   1.653   1.653   1.653   1.653   1.653   1.653   1.653   1.653   1.653   1.653
    73.33    1.653   1.653   1.653   1.653   1.653   1.653   1.653   1.653   1.653   1.653   1.653   1.653   1.653   1.653   1.653   1.653   1.653   1.653   1.653   1.653   1.653   1.653   1.653   1.653   1.653
    64.17    1.653   1.653   1.653   1.653   1.653   1.653   1.653   1.653   1.653   1.653   1.653   1.653   1.653   1.653   1.653   1.653   1.653   1.653   1.653   1.653   1.653   1.653   1.653   1.653   1.653
    55.00    1.653   1.653   1.653   1.653   1.653   1.653   1.653   1.653   1.653   1.653   1.653   1.653   1.653   1.653   1.653   1.653   1.653   1.653   1.653   1.653   1.653   1.653   1.653   1.653   1.653
    45.83    1.653   1.653   1.653   1.653   1.653   1.653   1.653   1.653   1.653   1.653   1.653   1.653   1.653   1.653   1.653   1.653   1.653   1.653   1.653   1.653   1.653   1.653   1.653   1.653   1.653
    36.67    1.653   1.653   1.653   1.653   1.653   1.653   1.653   1.653   1.653   1.653   1.653   1.653   1.653   1.653   1.653   1.653   1.653   1.653   1.653   1.653   1.653   1.653   1.653   1.653   1.653
    27.50    1.653   1.653   1.653   1.653   1.653   1.653   1.653   1.653   1.653   1.653   1.653   1.653   1.653   1.653   1.653   1.653   1.653   1.653   1.653   1.653   1.653   1.653   1.653   1.653   1.653
    18.33    1.653   1.653   1.653   1.653   1.653   1.653   1.653   1.653   1.653   1.653   1.653   1.653   1.653   1.653   1.653   1.653   1.653   1.653   1.653   1.653   1.653   1.653   1.653   1.653   1.653
     9.17    1.653   1.653   1.653   1.653   1.653   1.653   1.653   1.653   1.653   1.653   1.653   1.653   1.653   1.653   1.653   1.653   1.653   1.653   1.653   1.653   1.653   1.653   1.653   1.653   1.653
     0.00    1.653   1.653   1.653   1.653   1.653   1.653   1.653   1.653   1.653   1.653   1.653   1.653   1.653   1.653   1.653   1.653   1.653   1.653   1.653   1.653   1.653   1.653   1.653   1.653   1.653

   Height   Standard deviation at grid points for the w component:
   220.00    1.037   1.037   1.037   1.037   1.037   1.037   1.037   1.037   1.037   1.037   1.037   1.037   1.037   1.037   1.037   1.037   1.037   1.037   1.037   1.037   1.037   1.037   1.037   1.037   1.037
   210.83    1.037   1.037   1.037   1.037   1.037   1.037   1.037   1.037   1.037   1.037   1.037   1.037   1.037   1.037   1.037   1.037   1.037   1.037   1.037   1.037   1.037   1.037   1.037   1.037   1.037
   201.67    1.037   1.037   1.037   1.037   1.037   1.037   1.037   1.037   1.037   1.037   1.037   1.037   1.037   1.037   1.037   1.037   1.037   1.037   1.037   1.037   1.037   1.037   1.037   1.037   1.037
   192.50    1.037   1.037   1.037   1.037   1.037   1.037   1.037   1.037   1.037   1.037   1.037   1.037   1.037   1.037   1.037   1.037   1.037   1.037   1.037   1.037   1.037   1.037   1.037   1.037   1.037
   183.33    1.037   1.037   1.037   1.037   1.037   1.037   1.037   1.037   1.037   1.037   1.037   1.037   1.037   1.037   1.037   1.037   1.037   1.037   1.037   1.037   1.037   1.037   1.037   1.037   1.037
   174.17    1.037   1.037   1.037   1.037   1.037   1.037   1.037   1.037   1.037   1.037   1.037   1.037   1.037   1.037   1.037   1.037   1.037   1.037   1.037   1.037   1.037   1.037   1.037   1.037   1.037
   165.00    1.037   1.037   1.037   1.037   1.037   1.037   1.037   1.037   1.037   1.037   1.037   1.037   1.037   1.037   1.037   1.037   1.037   1.037   1.037   1.037   1.037   1.037   1.037   1.037   1.037
   155.83    1.037   1.037   1.037   1.037   1.037   1.037   1.037   1.037   1.037   1.037   1.037   1.037   1.037   1.037   1.037   1.037   1.037   1.037   1.037   1.037   1.037   1.037   1.037   1.037   1.037
   146.67    1.037   1.037   1.037   1.037   1.037   1.037   1.037   1.037   1.037   1.037   1.037   1.037   1.037   1.037   1.037   1.037   1.037   1.037   1.037   1.037   1.037   1.037   1.037   1.037   1.037
   137.50    1.037   1.037   1.037   1.037   1.037   1.037   1.037   1.037   1.037   1.037   1.037   1.037   1.037   1.037   1.037   1.037   1.037   1.037   1.037   1.037   1.037   1.037   1.037   1.037   1.037
   128.33    1.037   1.037   1.037   1.037   1.037   1.037   1.037   1.037   1.037   1.037   1.037   1.037   1.037   1.037   1.037   1.037   1.037   1.037   1.037   1.037   1.037   1.037   1.037   1.037   1.037
   119.17    1.037   1.037   1.037   1.037   1.037   1.037   1.037   1.037   1.037   1.037   1.037   1.037   1.037   1.037   1.037   1.037   1.037   1.037   1.037   1.037   1.037   1.037   1.037   1.037   1.037
   110.00    1.037   1.037   1.037   1.037   1.037   1.037   1.037   1.037   1.037   1.037   1.037   1.037   1.037   1.037   1.037   1.037   1.037   1.037   1.037   1.037   1.037   1.037   1.037   1.037   1.037
   100.83    1.037   1.037   1.037   1.037   1.037   1.037   1.037   1.037   1.037   1.037   1.037   1.037   1.037   1.037   1.037   1.037   1.037   1.037   1.037   1.037   1.037   1.037   1.037   1.037   1.037
    91.67    1.037   1.037   1.037   1.037   1.037   1.037   1.037   1.037   1.037   1.037   1.037   1.037   1.037   1.037   1.037   1.037   1.037   1.037   1.037   1.037   1.037   1.037   1.037   1.037   1.037
    82.50    1.037   1.037   1.037   1.037   1.037   1.037   1.037   1.037   1.037   1.037   1.037   1.037   1.037   1.037   1.037   1.037   1.037   1.037   1.037   1.037   1.037   1.037   1.037   1.037   1.037
    73.33    1.037   1.037   1.037   1.037   1.037   1.037   1.037   1.037   1.037   1.037   1.037   1.037   1.037   1.037   1.037   1.037   1.037   1.037   1.037   1.037   1.037   1.037   1.037   1.037   1.037
    64.17    1.037   1.037   1.037   1.037   1.037   1.037   1.037   1.037   1.037   1.037   1.037   1.037   1.037   1.037   1.037   1.037   1.037   1.037   1.037   1.037   1.037   1.037   1.037   1.037   1.037
    55.00    1.037   1.037   1.037   1.037   1.037   1.037   1.037   1.037   1.037   1.037   1.037   1.037   1.037   1.037   1.037   1.037   1.037   1.037   1.037   1.037   1.037   1.037   1.037   1.037   1.037
    45.83    1.037   1.037   1.037   1.037   1.037   1.037   1.037   1.037   1.037   1.037   1.037   1.037   1.037   1.037   1.037   1.037   1.037   1.037   1.037   1.037   1.037   1.037   1.037   1.037   1.037
    36.67    1.037   1.037   1.037   1.037   1.037   1.037   1.037   1.037   1.037   1.037   1.037   1.037   1.037   1.037   1.037   1.037   1.037   1.037   1.037   1.037   1.037   1.037   1.037   1.037   1.037
    27.50    1.037   1.037   1.037   1.037   1.037   1.037   1.037   1.037   1.037   1.037   1.037   1.037   1.037   1.037   1.037   1.037   1.037   1.037   1.037   1.037   1.037   1.037   1.037   1.037   1.037
    18.33    1.037   1.037   1.037   1.037   1.037   1.037   1.037   1.037   1.037   1.037   1.037   1.037   1.037   1.037   1.037   1.037   1.037   1.037   1.037   1.037   1.037   1.037   1.037   1.037   1.037
     9.17    1.037   1.037   1.037   1.037   1.037   1.037   1.037   1.037   1.037   1.037   1.037   1.037   1.037   1.037   1.037   1.037   1.037   1.037   1.037   1.037   1.037   1.037   1.037   1.037   1.037
     0.00    1.037   1.037   1.037   1.037   1.037   1.037   1.037   1.037   1.037   1.037   1.037   1.037   1.037   1.037   1.037   1.037   1.037   1.037   1.037   1.037   1.037   1.037   1.037   1.037   1.037

   Mean standard deviation across all grid points:
      u component:    2.012 m/s
      v component:    1.653 m/s
      w component:    1.037 m/s


U-component (X) statistics from the interpolated hub point:

   Mean =  10.1924 m/s
   TI   =  20.6926 %


Processing complete.  183.9 CPU seconds used.
